LTspice 24.1.0 for Windows
Circuit: Z:\home\sebastian\FIUBA-2do Cuatrimestre\Analisis de Circuitos\TP\Simulaciones Ltspice\TP\Draft2.net
Start Time: Thu Feb 13 19:31:27 2025
solver = Normal
Maximum thread count: 4
tnom = 27
temp = 27
method = trap
Direct Newton iteration for .op point succeeded.
Total elapsed time: 0.354 seconds.

Files loaded:
Z:\home\sebastian\FIUBA-2do Cuatrimestre\Analisis de Circuitos\TP\Simulaciones Ltspice\TP\Draft2.net
C:\users\sebastian\AppData\Local\LTspice\lib\sub\UniversalOpAmp1.lib

