LTspice 24.1.0 for Windows
Circuit: Z:\home\sebastian\FIUBA-2do Cuatrimestre\Analisis de Circuitos\TP\Simulaciones Ltspice\TP\tp.net
Start Time: Wed Feb 12 15:31:56 2025
solver = Normal
Maximum thread count: 4
tnom = 27
temp = 27
method = trap
Per .tran options, skipping operating point for transient analysis.
Changing Tseed to 1e-08
Changing Tseed to 1e-10
Changing Tseed to 1e-07
Changing Tseed to 1e-11
Changing Tseed to 1e-06
Changing Tseed to 1e-12
Changing Tseed to 1e-05
Changing Tseed to 1e-13
Changing Tseed to 0.0001
Changing Tseed to 1e-14
Changing Tseed to 0.001
Changing Tseed to 1e-15
Changing Tseed to 1e-17
Changing Tseed to 1e-19
Changing Tseed to 1e-16
Changing Tseed to 1e-20
Changing Tseed to 1e-15
Changing Tseed to 1e-21
Total elapsed time: 6.227 seconds.

Files loaded:
Z:\home\sebastian\FIUBA-2do Cuatrimestre\Analisis de Circuitos\TP\Simulaciones Ltspice\TP\tp.net
Z:\home\sebastian\FIUBA-2do Cuatrimestre\Analisis de Circuitos\TP\Simulaciones Ltspice\TL081_modelo.txt

